Circuit: * U:\Windows\Bureau\TestPasseBas.asc


Date: Thu Feb 03 10:23:51 2022
Total elapsed time: 0.030 seconds.

tnom = 27
temp = 27
method = trap
totiter = 0
traniter = 0
tranpoints = 0
accept = 0
rejected = 0
matrix size = 3
fillins = 0
solver = Normal

