Circuit: * U:\Windows\Bureau\projet_capteur\ElecAnalog\SchemaCompletSansCapteur\ElectronicAnalog1.asc

Direct Newton iteration for .op point succeeded.

Date: Fri Apr 15 20:31:34 2022
Total elapsed time: 0.190 seconds.

tnom = 27
temp = 27
method = modified trap
totiter = 16532
traniter = 16510
tranpoints = 8256
accept = 5324
rejected = 2932
matrix size = 13
fillins = 6
solver = Normal
Matrix Compiler1: 632 bytes object code size  0.2/0.1/[0.1]
Matrix Compiler2: 1.08 KB object code size  0.1/0.1/[0.1]

